* ==========================================
* FINAL PROJECT TOP-LEVEL TESTBENCH (2kb SRAM)
* ==========================================

.protect
.include '7nm_TT.pm'
.unprotect

.include 'sram_array_2kb.sp'
.include 'col_peripherals.sp'

.global VDD GND
Vdd VDD 0 0.7V

* --- 1:1:1 SRAM Cell ---
.subckt SRAM WL BL BLB q qb
Mpr  q   qb  VDD  VDD  pmos_sram  m=1
Mnr  q   qb  GND  GND  nmos_sram  m=1
Mpl  qb  q   VDD  VDD  pmos_sram  m=1
Mnl  qb  q   GND  GND  nmos_sram  m=1
Mnpr BL  WL  q    GND  nmos_sram  m=1
Mnpl BLB WL  qb   GND  nmos_sram  m=1
.ends

* --- Basic Logic Gates ---
.subckt INV IN OUT
Mp1 OUT IN VDD VDD pmos_sram W=54n L=20n
Mn1 OUT IN GND GND nmos_sram W=27n L=20n
.ends

.subckt INV_LARGE IN OUT
Mp1 OUT IN VDD VDD pmos_sram W=216n L=20n
Mn1 OUT IN GND GND nmos_sram W=108n L=20n
.ends

.subckt NAND2 A B OUT
Mp1 OUT A VDD VDD pmos_sram W=54n L=20n
Mp2 OUT B VDD VDD pmos_sram W=54n L=20n
Mn1 OUT A N1  GND nmos_sram W=54n L=20n
Mn2 N1  B GND GND nmos_sram W=54n L=20n
.ends

.subckt NAND3 A B C OUT
Mp1 OUT A VDD VDD pmos_sram W=54n L=20n
Mp2 OUT B VDD VDD pmos_sram W=54n L=20n
Mp3 OUT C VDD VDD pmos_sram W=54n L=20n
Mn1 OUT A N1  GND nmos_sram W=81n L=20n
Mn2 N1  B N2  GND nmos_sram W=81n L=20n
Mn3 N2  C GND GND nmos_sram W=81n L=20n
.ends

* --- Global Control Logic ---
.subckt CONTROL_LOGIC CLK WEN PRE SAEN CLK_WL
* PRE follows CLK (CLK=0: Precharge, CLK=1: Evaluate)
Xinv1 CLK pre_b INV
Xinv2 pre_b PRE INV

* Delay CLK slightly for Wordline to ensure precharge is off
Xinv3 CLK wl_b INV
Xinv4 wl_b CLK_WL INV

* Delay CLK more for SAEN (Sense Amp Enable)
Xinv5 CLK d1 INV
Xinv6 d1 d2 INV
Xinv7 d2 d3 INV
Xinv8 d3 clk_del INV

* SAEN is active only during READ (WEN=0) AND delayed CLK=1
Xinv9 WEN WEN_b INV
Xnand1 clk_del WEN_b saen_b NAND2
Xinv10 saen_b SAEN INV
.ends

* --- Row Decoder Subcircuit (From Ex2) ---
.subckt ROW_DECODER A0 A1 A2 A3 A4 A5 CLK_IN WL_0 WL_1 WL_2 WL_3 WL_4 WL_5 WL_6 WL_7 WL_8 WL_9 WL_10 WL_11 WL_12 WL_13 WL_14 WL_15 WL_16 WL_17 WL_18 WL_19 WL_20 WL_21 WL_22 WL_23 WL_24 WL_25 WL_26 WL_27 WL_28 WL_29 WL_30 WL_31 WL_32 WL_33 WL_34 WL_35 WL_36 WL_37 WL_38 WL_39 WL_40 WL_41 WL_42 WL_43 WL_44 WL_45 WL_46 WL_47 WL_48 WL_49 WL_50 WL_51 WL_52 WL_53 WL_54 WL_55 WL_56 WL_57 WL_58 WL_59 WL_60 WL_61 WL_62 WL_63 
Xbuf_clk CLK_IN clk_bar INV
Xbuf_clk2 clk_bar clk_buf INV
Xbuf_a0_1 A0 A_bar_0 INV
Xbuf_a0_2 A_bar_0 A_0_buf INV
Xbuf_a1_1 A1 A_bar_1 INV
Xbuf_a1_2 A_bar_1 A_1_buf INV
Xbuf_a2_1 A2 A_bar_2 INV
Xbuf_a2_2 A_bar_2 A_2_buf INV
Xbuf_a3_1 A3 A_bar_3 INV
Xbuf_a3_2 A_bar_3 A_3_buf INV
Xbuf_a4_1 A4 A_bar_4 INV
Xbuf_a4_2 A_bar_4 A_4_buf INV
Xbuf_a5_1 A5 A_bar_5 INV
Xbuf_a5_2 A_bar_5 A_5_buf INV
X_PD_1_NAND_0 A_bar_0 A_bar_1 A_bar_2 P1_nand_0 NAND3
X_PD_1_INV_0 P1_nand_0 P1_0 INV
X_PD_1_NAND_1 A_0_buf A_bar_1 A_bar_2 P1_nand_1 NAND3
X_PD_1_INV_1 P1_nand_1 P1_1 INV
X_PD_1_NAND_2 A_bar_0 A_1_buf A_bar_2 P1_nand_2 NAND3
X_PD_1_INV_2 P1_nand_2 P1_2 INV
X_PD_1_NAND_3 A_0_buf A_1_buf A_bar_2 P1_nand_3 NAND3
X_PD_1_INV_3 P1_nand_3 P1_3 INV
X_PD_1_NAND_4 A_bar_0 A_bar_1 A_2_buf P1_nand_4 NAND3
X_PD_1_INV_4 P1_nand_4 P1_4 INV
X_PD_1_NAND_5 A_0_buf A_bar_1 A_2_buf P1_nand_5 NAND3
X_PD_1_INV_5 P1_nand_5 P1_5 INV
X_PD_1_NAND_6 A_bar_0 A_1_buf A_2_buf P1_nand_6 NAND3
X_PD_1_INV_6 P1_nand_6 P1_6 INV
X_PD_1_NAND_7 A_0_buf A_1_buf A_2_buf P1_nand_7 NAND3
X_PD_1_INV_7 P1_nand_7 P1_7 INV
X_PD_2_NAND_0 A_bar_3 A_bar_4 A_bar_5 P2_nand_0 NAND3
X_PD_2_INV_0 P2_nand_0 P2_0 INV
X_PD_2_NAND_1 A_3_buf A_bar_4 A_bar_5 P2_nand_1 NAND3
X_PD_2_INV_1 P2_nand_1 P2_1 INV
X_PD_2_NAND_2 A_bar_3 A_4_buf A_bar_5 P2_nand_2 NAND3
X_PD_2_INV_2 P2_nand_2 P2_2 INV
X_PD_2_NAND_3 A_3_buf A_4_buf A_bar_5 P2_nand_3 NAND3
X_PD_2_INV_3 P2_nand_3 P2_3 INV
X_PD_2_NAND_4 A_bar_3 A_bar_4 A_5_buf P2_nand_4 NAND3
X_PD_2_INV_4 P2_nand_4 P2_4 INV
X_PD_2_NAND_5 A_3_buf A_bar_4 A_5_buf P2_nand_5 NAND3
X_PD_2_INV_5 P2_nand_5 P2_5 INV
X_PD_2_NAND_6 A_bar_3 A_4_buf A_5_buf P2_nand_6 NAND3
X_PD_2_INV_6 P2_nand_6 P2_6 INV
X_PD_2_NAND_7 A_3_buf A_4_buf A_5_buf P2_nand_7 NAND3
X_PD_2_INV_7 P2_nand_7 P2_7 INV
X_Final_NAND_0 P1_0 P2_0 clk_buf WL_NAND_OUT_0 NAND3
X_Final_INV_0 WL_NAND_OUT_0 WL_0 INV_LARGE
X_Final_NAND_1 P1_1 P2_0 clk_buf WL_NAND_OUT_1 NAND3
X_Final_INV_1 WL_NAND_OUT_1 WL_1 INV_LARGE
X_Final_NAND_2 P1_2 P2_0 clk_buf WL_NAND_OUT_2 NAND3
X_Final_INV_2 WL_NAND_OUT_2 WL_2 INV_LARGE
X_Final_NAND_3 P1_3 P2_0 clk_buf WL_NAND_OUT_3 NAND3
X_Final_INV_3 WL_NAND_OUT_3 WL_3 INV_LARGE
X_Final_NAND_4 P1_4 P2_0 clk_buf WL_NAND_OUT_4 NAND3
X_Final_INV_4 WL_NAND_OUT_4 WL_4 INV_LARGE
X_Final_NAND_5 P1_5 P2_0 clk_buf WL_NAND_OUT_5 NAND3
X_Final_INV_5 WL_NAND_OUT_5 WL_5 INV_LARGE
X_Final_NAND_6 P1_6 P2_0 clk_buf WL_NAND_OUT_6 NAND3
X_Final_INV_6 WL_NAND_OUT_6 WL_6 INV_LARGE
X_Final_NAND_7 P1_7 P2_0 clk_buf WL_NAND_OUT_7 NAND3
X_Final_INV_7 WL_NAND_OUT_7 WL_7 INV_LARGE
X_Final_NAND_8 P1_0 P2_1 clk_buf WL_NAND_OUT_8 NAND3
X_Final_INV_8 WL_NAND_OUT_8 WL_8 INV_LARGE
X_Final_NAND_9 P1_1 P2_1 clk_buf WL_NAND_OUT_9 NAND3
X_Final_INV_9 WL_NAND_OUT_9 WL_9 INV_LARGE
X_Final_NAND_10 P1_2 P2_1 clk_buf WL_NAND_OUT_10 NAND3
X_Final_INV_10 WL_NAND_OUT_10 WL_10 INV_LARGE
X_Final_NAND_11 P1_3 P2_1 clk_buf WL_NAND_OUT_11 NAND3
X_Final_INV_11 WL_NAND_OUT_11 WL_11 INV_LARGE
X_Final_NAND_12 P1_4 P2_1 clk_buf WL_NAND_OUT_12 NAND3
X_Final_INV_12 WL_NAND_OUT_12 WL_12 INV_LARGE
X_Final_NAND_13 P1_5 P2_1 clk_buf WL_NAND_OUT_13 NAND3
X_Final_INV_13 WL_NAND_OUT_13 WL_13 INV_LARGE
X_Final_NAND_14 P1_6 P2_1 clk_buf WL_NAND_OUT_14 NAND3
X_Final_INV_14 WL_NAND_OUT_14 WL_14 INV_LARGE
X_Final_NAND_15 P1_7 P2_1 clk_buf WL_NAND_OUT_15 NAND3
X_Final_INV_15 WL_NAND_OUT_15 WL_15 INV_LARGE
X_Final_NAND_16 P1_0 P2_2 clk_buf WL_NAND_OUT_16 NAND3
X_Final_INV_16 WL_NAND_OUT_16 WL_16 INV_LARGE
X_Final_NAND_17 P1_1 P2_2 clk_buf WL_NAND_OUT_17 NAND3
X_Final_INV_17 WL_NAND_OUT_17 WL_17 INV_LARGE
X_Final_NAND_18 P1_2 P2_2 clk_buf WL_NAND_OUT_18 NAND3
X_Final_INV_18 WL_NAND_OUT_18 WL_18 INV_LARGE
X_Final_NAND_19 P1_3 P2_2 clk_buf WL_NAND_OUT_19 NAND3
X_Final_INV_19 WL_NAND_OUT_19 WL_19 INV_LARGE
X_Final_NAND_20 P1_4 P2_2 clk_buf WL_NAND_OUT_20 NAND3
X_Final_INV_20 WL_NAND_OUT_20 WL_20 INV_LARGE
X_Final_NAND_21 P1_5 P2_2 clk_buf WL_NAND_OUT_21 NAND3
X_Final_INV_21 WL_NAND_OUT_21 WL_21 INV_LARGE
X_Final_NAND_22 P1_6 P2_2 clk_buf WL_NAND_OUT_22 NAND3
X_Final_INV_22 WL_NAND_OUT_22 WL_22 INV_LARGE
X_Final_NAND_23 P1_7 P2_2 clk_buf WL_NAND_OUT_23 NAND3
X_Final_INV_23 WL_NAND_OUT_23 WL_23 INV_LARGE
X_Final_NAND_24 P1_0 P2_3 clk_buf WL_NAND_OUT_24 NAND3
X_Final_INV_24 WL_NAND_OUT_24 WL_24 INV_LARGE
X_Final_NAND_25 P1_1 P2_3 clk_buf WL_NAND_OUT_25 NAND3
X_Final_INV_25 WL_NAND_OUT_25 WL_25 INV_LARGE
X_Final_NAND_26 P1_2 P2_3 clk_buf WL_NAND_OUT_26 NAND3
X_Final_INV_26 WL_NAND_OUT_26 WL_26 INV_LARGE
X_Final_NAND_27 P1_3 P2_3 clk_buf WL_NAND_OUT_27 NAND3
X_Final_INV_27 WL_NAND_OUT_27 WL_27 INV_LARGE
X_Final_NAND_28 P1_4 P2_3 clk_buf WL_NAND_OUT_28 NAND3
X_Final_INV_28 WL_NAND_OUT_28 WL_28 INV_LARGE
X_Final_NAND_29 P1_5 P2_3 clk_buf WL_NAND_OUT_29 NAND3
X_Final_INV_29 WL_NAND_OUT_29 WL_29 INV_LARGE
X_Final_NAND_30 P1_6 P2_3 clk_buf WL_NAND_OUT_30 NAND3
X_Final_INV_30 WL_NAND_OUT_30 WL_30 INV_LARGE
X_Final_NAND_31 P1_7 P2_3 clk_buf WL_NAND_OUT_31 NAND3
X_Final_INV_31 WL_NAND_OUT_31 WL_31 INV_LARGE
X_Final_NAND_32 P1_0 P2_4 clk_buf WL_NAND_OUT_32 NAND3
X_Final_INV_32 WL_NAND_OUT_32 WL_32 INV_LARGE
X_Final_NAND_33 P1_1 P2_4 clk_buf WL_NAND_OUT_33 NAND3
X_Final_INV_33 WL_NAND_OUT_33 WL_33 INV_LARGE
X_Final_NAND_34 P1_2 P2_4 clk_buf WL_NAND_OUT_34 NAND3
X_Final_INV_34 WL_NAND_OUT_34 WL_34 INV_LARGE
X_Final_NAND_35 P1_3 P2_4 clk_buf WL_NAND_OUT_35 NAND3
X_Final_INV_35 WL_NAND_OUT_35 WL_35 INV_LARGE
X_Final_NAND_36 P1_4 P2_4 clk_buf WL_NAND_OUT_36 NAND3
X_Final_INV_36 WL_NAND_OUT_36 WL_36 INV_LARGE
X_Final_NAND_37 P1_5 P2_4 clk_buf WL_NAND_OUT_37 NAND3
X_Final_INV_37 WL_NAND_OUT_37 WL_37 INV_LARGE
X_Final_NAND_38 P1_6 P2_4 clk_buf WL_NAND_OUT_38 NAND3
X_Final_INV_38 WL_NAND_OUT_38 WL_38 INV_LARGE
X_Final_NAND_39 P1_7 P2_4 clk_buf WL_NAND_OUT_39 NAND3
X_Final_INV_39 WL_NAND_OUT_39 WL_39 INV_LARGE
X_Final_NAND_40 P1_0 P2_5 clk_buf WL_NAND_OUT_40 NAND3
X_Final_INV_40 WL_NAND_OUT_40 WL_40 INV_LARGE
X_Final_NAND_41 P1_1 P2_5 clk_buf WL_NAND_OUT_41 NAND3
X_Final_INV_41 WL_NAND_OUT_41 WL_41 INV_LARGE
X_Final_NAND_42 P1_2 P2_5 clk_buf WL_NAND_OUT_42 NAND3
X_Final_INV_42 WL_NAND_OUT_42 WL_42 INV_LARGE
X_Final_NAND_43 P1_3 P2_5 clk_buf WL_NAND_OUT_43 NAND3
X_Final_INV_43 WL_NAND_OUT_43 WL_43 INV_LARGE
X_Final_NAND_44 P1_4 P2_5 clk_buf WL_NAND_OUT_44 NAND3
X_Final_INV_44 WL_NAND_OUT_44 WL_44 INV_LARGE
X_Final_NAND_45 P1_5 P2_5 clk_buf WL_NAND_OUT_45 NAND3
X_Final_INV_45 WL_NAND_OUT_45 WL_45 INV_LARGE
X_Final_NAND_46 P1_6 P2_5 clk_buf WL_NAND_OUT_46 NAND3
X_Final_INV_46 WL_NAND_OUT_46 WL_46 INV_LARGE
X_Final_NAND_47 P1_7 P2_5 clk_buf WL_NAND_OUT_47 NAND3
X_Final_INV_47 WL_NAND_OUT_47 WL_47 INV_LARGE
X_Final_NAND_48 P1_0 P2_6 clk_buf WL_NAND_OUT_48 NAND3
X_Final_INV_48 WL_NAND_OUT_48 WL_48 INV_LARGE
X_Final_NAND_49 P1_1 P2_6 clk_buf WL_NAND_OUT_49 NAND3
X_Final_INV_49 WL_NAND_OUT_49 WL_49 INV_LARGE
X_Final_NAND_50 P1_2 P2_6 clk_buf WL_NAND_OUT_50 NAND3
X_Final_INV_50 WL_NAND_OUT_50 WL_50 INV_LARGE
X_Final_NAND_51 P1_3 P2_6 clk_buf WL_NAND_OUT_51 NAND3
X_Final_INV_51 WL_NAND_OUT_51 WL_51 INV_LARGE
X_Final_NAND_52 P1_4 P2_6 clk_buf WL_NAND_OUT_52 NAND3
X_Final_INV_52 WL_NAND_OUT_52 WL_52 INV_LARGE
X_Final_NAND_53 P1_5 P2_6 clk_buf WL_NAND_OUT_53 NAND3
X_Final_INV_53 WL_NAND_OUT_53 WL_53 INV_LARGE
X_Final_NAND_54 P1_6 P2_6 clk_buf WL_NAND_OUT_54 NAND3
X_Final_INV_54 WL_NAND_OUT_54 WL_54 INV_LARGE
X_Final_NAND_55 P1_7 P2_6 clk_buf WL_NAND_OUT_55 NAND3
X_Final_INV_55 WL_NAND_OUT_55 WL_55 INV_LARGE
X_Final_NAND_56 P1_0 P2_7 clk_buf WL_NAND_OUT_56 NAND3
X_Final_INV_56 WL_NAND_OUT_56 WL_56 INV_LARGE
X_Final_NAND_57 P1_1 P2_7 clk_buf WL_NAND_OUT_57 NAND3
X_Final_INV_57 WL_NAND_OUT_57 WL_57 INV_LARGE
X_Final_NAND_58 P1_2 P2_7 clk_buf WL_NAND_OUT_58 NAND3
X_Final_INV_58 WL_NAND_OUT_58 WL_58 INV_LARGE
X_Final_NAND_59 P1_3 P2_7 clk_buf WL_NAND_OUT_59 NAND3
X_Final_INV_59 WL_NAND_OUT_59 WL_59 INV_LARGE
X_Final_NAND_60 P1_4 P2_7 clk_buf WL_NAND_OUT_60 NAND3
X_Final_INV_60 WL_NAND_OUT_60 WL_60 INV_LARGE
X_Final_NAND_61 P1_5 P2_7 clk_buf WL_NAND_OUT_61 NAND3
X_Final_INV_61 WL_NAND_OUT_61 WL_61 INV_LARGE
X_Final_NAND_62 P1_6 P2_7 clk_buf WL_NAND_OUT_62 NAND3
X_Final_INV_62 WL_NAND_OUT_62 WL_62 INV_LARGE
X_Final_NAND_63 P1_7 P2_7 clk_buf WL_NAND_OUT_63 NAND3
X_Final_INV_63 WL_NAND_OUT_63 WL_63 INV_LARGE
.ends

* --- TOP LEVEL INSTANTIATION ---
X_CTRL CLK WEN PRE SAEN CLK_WL CONTROL_LOGIC

X_DEC A_1 A_2 A_3 A_4 A_5 A_6 CLK_WL WL_0 WL_1 WL_2 WL_3 WL_4 WL_5 WL_6 WL_7 WL_8 WL_9 WL_10 WL_11 WL_12 WL_13 WL_14 WL_15 WL_16 WL_17 WL_18 WL_19 WL_20 WL_21 WL_22 WL_23 WL_24 WL_25 WL_26 WL_27 WL_28 WL_29 WL_30 WL_31 WL_32 WL_33 WL_34 WL_35 WL_36 WL_37 WL_38 WL_39 WL_40 WL_41 WL_42 WL_43 WL_44 WL_45 WL_46 WL_47 WL_48 WL_49 WL_50 WL_51 WL_52 WL_53 WL_54 WL_55 WL_56 WL_57 WL_58 WL_59 WL_60 WL_61 WL_62 WL_63 ROW_DECODER

X_MEM WL_0 WL_1 WL_2 WL_3 WL_4 WL_5 WL_6 WL_7 WL_8 WL_9 WL_10 WL_11 WL_12 WL_13 WL_14 WL_15 WL_16 WL_17 WL_18 WL_19 WL_20 WL_21 WL_22 WL_23 WL_24 WL_25 WL_26 WL_27 WL_28 WL_29 WL_30 WL_31 WL_32 WL_33 WL_34 WL_35 WL_36 WL_37 WL_38 WL_39 WL_40 WL_41 WL_42 WL_43 WL_44 WL_45 WL_46 WL_47 WL_48 WL_49 WL_50 WL_51 WL_52 WL_53 WL_54 WL_55 WL_56 WL_57 WL_58 WL_59 WL_60 WL_61 WL_62 WL_63 BL_0 BLB_0 BL_1 BLB_1 BL_2 BLB_2 BL_3 BLB_3 BL_4 BLB_4 BL_5 BLB_5 BL_6 BLB_6 BL_7 BLB_7 BL_8 BLB_8 BL_9 BLB_9 BL_10 BLB_10 BL_11 BLB_11 BL_12 BLB_12 BL_13 BLB_13 BL_14 BLB_14 BL_15 BLB_15 BL_16 BLB_16 BL_17 BLB_17 BL_18 BLB_18 BL_19 BLB_19 BL_20 BLB_20 BL_21 BLB_21 BL_22 BLB_22 BL_23 BLB_23 BL_24 BLB_24 BL_25 BLB_25 BL_26 BLB_26 BL_27 BLB_27 BL_28 BLB_28 BL_29 BLB_29 BL_30 BLB_30 BL_31 BLB_31 SRAM_ARRAY

Xinv_A0 A_0 A_0_B INV
X_PERIPH A_0 A_0_B PRE SAEN WEN BL_0 BLB_0 BL_1 BLB_1 BL_2 BLB_2 BL_3 BLB_3 BL_4 BLB_4 BL_5 BLB_5 BL_6 BLB_6 BL_7 BLB_7 BL_8 BLB_8 BL_9 BLB_9 BL_10 BLB_10 BL_11 BLB_11 BL_12 BLB_12 BL_13 BLB_13 BL_14 BLB_14 BL_15 BLB_15 BL_16 BLB_16 BL_17 BLB_17 BL_18 BLB_18 BL_19 BLB_19 BL_20 BLB_20 BL_21 BLB_21 BL_22 BLB_22 BL_23 BLB_23 BL_24 BLB_24 BL_25 BLB_25 BL_26 BLB_26 BL_27 BLB_27 BL_28 BLB_28 BL_29 BLB_29 BL_30 BLB_30 BL_31 BLB_31 D_0 D_1 D_2 D_3 D_4 D_5 D_6 D_7 D_8 D_9 D_10 D_11 D_12 D_13 D_14 D_15 Q_0 Q_b_0 Q_1 Q_b_1 Q_2 Q_b_2 Q_3 Q_b_3 Q_4 Q_b_4 Q_5 Q_b_5 Q_6 Q_b_6 Q_7 Q_b_7 Q_8 Q_b_8 Q_9 Q_b_9 Q_10 Q_b_10 Q_11 Q_b_11 Q_12 Q_b_12 Q_13 Q_b_13 Q_14 Q_b_14 Q_15 Q_b_15 COL_PERIPHERALS

* --- TEST STIMULI (4 Cycles) ---
* 1GHz Clock (1ns period, 50ps rise/fall as per spec)
Vclk CLK 0 PULSE(0 0.7 0 50p 50p 0.45n 1n)

* Cycle 1 (0-1ns): Write '1's to Address 0 (Row 0, Col 0)
* Cycle 2 (1-2ns): Write '0's to Address 1 (Row 0, Col 1)
* Cycle 3 (2-3ns): Read Address 0 (Expect '1's)
* Cycle 4 (3-4ns): Read Address 1 (Expect '0's)

Vwen WEN 0 PWL(0 0.7  1.9n 0.7  1.95n 0  4n 0)
Va0 A_0 0 PWL(0 0  0.9n 0  0.95n 0.7  1.9n 0.7  1.95n 0  2.9n 0  2.95n 0.7  4.5n 0.7)
Va1 A_1 0 DC 0V
Va2 A_2 0 DC 0V
Va3 A_3 0 DC 0V
Va4 A_4 0 DC 0V
Va5 A_5 0 DC 0V
Va6 A_6 0 DC 0V
Vd0 D_0 0 PWL(0 0.7  0.9n 0.7  0.95n 0  4n 0)
Vd1 D_1 0 PWL(0 0.7  0.9n 0.7  0.95n 0  4n 0)
Vd2 D_2 0 PWL(0 0.7  0.9n 0.7  0.95n 0  4n 0)
Vd3 D_3 0 PWL(0 0.7  0.9n 0.7  0.95n 0  4n 0)
Vd4 D_4 0 PWL(0 0.7  0.9n 0.7  0.95n 0  4n 0)
Vd5 D_5 0 PWL(0 0.7  0.9n 0.7  0.95n 0  4n 0)
Vd6 D_6 0 PWL(0 0.7  0.9n 0.7  0.95n 0  4n 0)
Vd7 D_7 0 PWL(0 0.7  0.9n 0.7  0.95n 0  4n 0)
Vd8 D_8 0 PWL(0 0.7  0.9n 0.7  0.95n 0  4n 0)
Vd9 D_9 0 PWL(0 0.7  0.9n 0.7  0.95n 0  4n 0)
Vd10 D_10 0 PWL(0 0.7  0.9n 0.7  0.95n 0  4n 0)
Vd11 D_11 0 PWL(0 0.7  0.9n 0.7  0.95n 0  4n 0)
Vd12 D_12 0 PWL(0 0.7  0.9n 0.7  0.95n 0  4n 0)
Vd13 D_13 0 PWL(0 0.7  0.9n 0.7  0.95n 0  4n 0)
Vd14 D_14 0 PWL(0 0.7  0.9n 0.7  0.95n 0  4n 0)
Vd15 D_15 0 PWL(0 0.7  0.9n 0.7  0.95n 0  4n 0)
* --- INITIAL CONDITIONS ---
.ic v(BL_0)=0.7v v(BLB_0)=0.7v
.ic v(BL_1)=0.7v v(BLB_1)=0.7v
.ic v(BL_2)=0.7v v(BLB_2)=0.7v
.ic v(BL_3)=0.7v v(BLB_3)=0.7v
.ic v(BL_4)=0.7v v(BLB_4)=0.7v
.ic v(BL_5)=0.7v v(BLB_5)=0.7v
.ic v(BL_6)=0.7v v(BLB_6)=0.7v
.ic v(BL_7)=0.7v v(BLB_7)=0.7v
.ic v(BL_8)=0.7v v(BLB_8)=0.7v
.ic v(BL_9)=0.7v v(BLB_9)=0.7v
.ic v(BL_10)=0.7v v(BLB_10)=0.7v
.ic v(BL_11)=0.7v v(BLB_11)=0.7v
.ic v(BL_12)=0.7v v(BLB_12)=0.7v
.ic v(BL_13)=0.7v v(BLB_13)=0.7v
.ic v(BL_14)=0.7v v(BLB_14)=0.7v
.ic v(BL_15)=0.7v v(BLB_15)=0.7v
.ic v(BL_16)=0.7v v(BLB_16)=0.7v
.ic v(BL_17)=0.7v v(BLB_17)=0.7v
.ic v(BL_18)=0.7v v(BLB_18)=0.7v
.ic v(BL_19)=0.7v v(BLB_19)=0.7v
.ic v(BL_20)=0.7v v(BLB_20)=0.7v
.ic v(BL_21)=0.7v v(BLB_21)=0.7v
.ic v(BL_22)=0.7v v(BLB_22)=0.7v
.ic v(BL_23)=0.7v v(BLB_23)=0.7v
.ic v(BL_24)=0.7v v(BLB_24)=0.7v
.ic v(BL_25)=0.7v v(BLB_25)=0.7v
.ic v(BL_26)=0.7v v(BLB_26)=0.7v
.ic v(BL_27)=0.7v v(BLB_27)=0.7v
.ic v(BL_28)=0.7v v(BLB_28)=0.7v
.ic v(BL_29)=0.7v v(BLB_29)=0.7v
.ic v(BL_30)=0.7v v(BLB_30)=0.7v
.ic v(BL_31)=0.7v v(BLB_31)=0.7v
.ic v(X_PERIPH.BL_int_0)=0.7v v(X_PERIPH.BLB_int_0)=0.7v
.ic v(X_PERIPH.BL_int_1)=0.7v v(X_PERIPH.BLB_int_1)=0.7v
.ic v(X_PERIPH.BL_int_2)=0.7v v(X_PERIPH.BLB_int_2)=0.7v
.ic v(X_PERIPH.BL_int_3)=0.7v v(X_PERIPH.BLB_int_3)=0.7v
.ic v(X_PERIPH.BL_int_4)=0.7v v(X_PERIPH.BLB_int_4)=0.7v
.ic v(X_PERIPH.BL_int_5)=0.7v v(X_PERIPH.BLB_int_5)=0.7v
.ic v(X_PERIPH.BL_int_6)=0.7v v(X_PERIPH.BLB_int_6)=0.7v
.ic v(X_PERIPH.BL_int_7)=0.7v v(X_PERIPH.BLB_int_7)=0.7v
.ic v(X_PERIPH.BL_int_8)=0.7v v(X_PERIPH.BLB_int_8)=0.7v
.ic v(X_PERIPH.BL_int_9)=0.7v v(X_PERIPH.BLB_int_9)=0.7v
.ic v(X_PERIPH.BL_int_10)=0.7v v(X_PERIPH.BLB_int_10)=0.7v
.ic v(X_PERIPH.BL_int_11)=0.7v v(X_PERIPH.BLB_int_11)=0.7v
.ic v(X_PERIPH.BL_int_12)=0.7v v(X_PERIPH.BLB_int_12)=0.7v
.ic v(X_PERIPH.BL_int_13)=0.7v v(X_PERIPH.BLB_int_13)=0.7v
.ic v(X_PERIPH.BL_int_14)=0.7v v(X_PERIPH.BLB_int_14)=0.7v
.ic v(X_PERIPH.BL_int_15)=0.7v v(X_PERIPH.BLB_int_15)=0.7v
.ic v(X_MEM.X_cell_0_0.q)=0v v(X_MEM.X_cell_0_0.qb)=0.7v
.ic v(X_MEM.X_cell_0_1.q)=0v v(X_MEM.X_cell_0_1.qb)=0.7v
.ic v(X_MEM.X_cell_0_2.q)=0v v(X_MEM.X_cell_0_2.qb)=0.7v
.ic v(X_MEM.X_cell_0_3.q)=0v v(X_MEM.X_cell_0_3.qb)=0.7v
.ic v(X_MEM.X_cell_0_4.q)=0v v(X_MEM.X_cell_0_4.qb)=0.7v
.ic v(X_MEM.X_cell_0_5.q)=0v v(X_MEM.X_cell_0_5.qb)=0.7v
.ic v(X_MEM.X_cell_0_6.q)=0v v(X_MEM.X_cell_0_6.qb)=0.7v
.ic v(X_MEM.X_cell_0_7.q)=0v v(X_MEM.X_cell_0_7.qb)=0.7v
.ic v(X_MEM.X_cell_0_8.q)=0v v(X_MEM.X_cell_0_8.qb)=0.7v
.ic v(X_MEM.X_cell_0_9.q)=0v v(X_MEM.X_cell_0_9.qb)=0.7v
.ic v(X_MEM.X_cell_0_10.q)=0v v(X_MEM.X_cell_0_10.qb)=0.7v
.ic v(X_MEM.X_cell_0_11.q)=0v v(X_MEM.X_cell_0_11.qb)=0.7v
.ic v(X_MEM.X_cell_0_12.q)=0v v(X_MEM.X_cell_0_12.qb)=0.7v
.ic v(X_MEM.X_cell_0_13.q)=0v v(X_MEM.X_cell_0_13.qb)=0.7v
.ic v(X_MEM.X_cell_0_14.q)=0v v(X_MEM.X_cell_0_14.qb)=0.7v
.ic v(X_MEM.X_cell_0_15.q)=0v v(X_MEM.X_cell_0_15.qb)=0.7v
.ic v(X_MEM.X_cell_0_16.q)=0v v(X_MEM.X_cell_0_16.qb)=0.7v
.ic v(X_MEM.X_cell_0_17.q)=0v v(X_MEM.X_cell_0_17.qb)=0.7v
.ic v(X_MEM.X_cell_0_18.q)=0v v(X_MEM.X_cell_0_18.qb)=0.7v
.ic v(X_MEM.X_cell_0_19.q)=0v v(X_MEM.X_cell_0_19.qb)=0.7v
.ic v(X_MEM.X_cell_0_20.q)=0v v(X_MEM.X_cell_0_20.qb)=0.7v
.ic v(X_MEM.X_cell_0_21.q)=0v v(X_MEM.X_cell_0_21.qb)=0.7v
.ic v(X_MEM.X_cell_0_22.q)=0v v(X_MEM.X_cell_0_22.qb)=0.7v
.ic v(X_MEM.X_cell_0_23.q)=0v v(X_MEM.X_cell_0_23.qb)=0.7v
.ic v(X_MEM.X_cell_0_24.q)=0v v(X_MEM.X_cell_0_24.qb)=0.7v
.ic v(X_MEM.X_cell_0_25.q)=0v v(X_MEM.X_cell_0_25.qb)=0.7v
.ic v(X_MEM.X_cell_0_26.q)=0v v(X_MEM.X_cell_0_26.qb)=0.7v
.ic v(X_MEM.X_cell_0_27.q)=0v v(X_MEM.X_cell_0_27.qb)=0.7v
.ic v(X_MEM.X_cell_0_28.q)=0v v(X_MEM.X_cell_0_28.qb)=0.7v
.ic v(X_MEM.X_cell_0_29.q)=0v v(X_MEM.X_cell_0_29.qb)=0.7v
.ic v(X_MEM.X_cell_0_30.q)=0v v(X_MEM.X_cell_0_30.qb)=0.7v
.ic v(X_MEM.X_cell_0_31.q)=0v v(X_MEM.X_cell_0_31.qb)=0.7v
.ic v(X_MEM.X_cell_1_0.q)=0v v(X_MEM.X_cell_1_0.qb)=0.7v
.ic v(X_MEM.X_cell_1_1.q)=0v v(X_MEM.X_cell_1_1.qb)=0.7v
.ic v(X_MEM.X_cell_1_2.q)=0v v(X_MEM.X_cell_1_2.qb)=0.7v
.ic v(X_MEM.X_cell_1_3.q)=0v v(X_MEM.X_cell_1_3.qb)=0.7v
.ic v(X_MEM.X_cell_1_4.q)=0v v(X_MEM.X_cell_1_4.qb)=0.7v
.ic v(X_MEM.X_cell_1_5.q)=0v v(X_MEM.X_cell_1_5.qb)=0.7v
.ic v(X_MEM.X_cell_1_6.q)=0v v(X_MEM.X_cell_1_6.qb)=0.7v
.ic v(X_MEM.X_cell_1_7.q)=0v v(X_MEM.X_cell_1_7.qb)=0.7v
.ic v(X_MEM.X_cell_1_8.q)=0v v(X_MEM.X_cell_1_8.qb)=0.7v
.ic v(X_MEM.X_cell_1_9.q)=0v v(X_MEM.X_cell_1_9.qb)=0.7v
.ic v(X_MEM.X_cell_1_10.q)=0v v(X_MEM.X_cell_1_10.qb)=0.7v
.ic v(X_MEM.X_cell_1_11.q)=0v v(X_MEM.X_cell_1_11.qb)=0.7v
.ic v(X_MEM.X_cell_1_12.q)=0v v(X_MEM.X_cell_1_12.qb)=0.7v
.ic v(X_MEM.X_cell_1_13.q)=0v v(X_MEM.X_cell_1_13.qb)=0.7v
.ic v(X_MEM.X_cell_1_14.q)=0v v(X_MEM.X_cell_1_14.qb)=0.7v
.ic v(X_MEM.X_cell_1_15.q)=0v v(X_MEM.X_cell_1_15.qb)=0.7v
.ic v(X_MEM.X_cell_1_16.q)=0v v(X_MEM.X_cell_1_16.qb)=0.7v
.ic v(X_MEM.X_cell_1_17.q)=0v v(X_MEM.X_cell_1_17.qb)=0.7v
.ic v(X_MEM.X_cell_1_18.q)=0v v(X_MEM.X_cell_1_18.qb)=0.7v
.ic v(X_MEM.X_cell_1_19.q)=0v v(X_MEM.X_cell_1_19.qb)=0.7v
.ic v(X_MEM.X_cell_1_20.q)=0v v(X_MEM.X_cell_1_20.qb)=0.7v
.ic v(X_MEM.X_cell_1_21.q)=0v v(X_MEM.X_cell_1_21.qb)=0.7v
.ic v(X_MEM.X_cell_1_22.q)=0v v(X_MEM.X_cell_1_22.qb)=0.7v
.ic v(X_MEM.X_cell_1_23.q)=0v v(X_MEM.X_cell_1_23.qb)=0.7v
.ic v(X_MEM.X_cell_1_24.q)=0v v(X_MEM.X_cell_1_24.qb)=0.7v
.ic v(X_MEM.X_cell_1_25.q)=0v v(X_MEM.X_cell_1_25.qb)=0.7v
.ic v(X_MEM.X_cell_1_26.q)=0v v(X_MEM.X_cell_1_26.qb)=0.7v
.ic v(X_MEM.X_cell_1_27.q)=0v v(X_MEM.X_cell_1_27.qb)=0.7v
.ic v(X_MEM.X_cell_1_28.q)=0v v(X_MEM.X_cell_1_28.qb)=0.7v
.ic v(X_MEM.X_cell_1_29.q)=0v v(X_MEM.X_cell_1_29.qb)=0.7v
.ic v(X_MEM.X_cell_1_30.q)=0v v(X_MEM.X_cell_1_30.qb)=0.7v
.ic v(X_MEM.X_cell_1_31.q)=0v v(X_MEM.X_cell_1_31.qb)=0.7v
.ic v(X_MEM.X_cell_2_0.q)=0v v(X_MEM.X_cell_2_0.qb)=0.7v
.ic v(X_MEM.X_cell_2_1.q)=0v v(X_MEM.X_cell_2_1.qb)=0.7v
.ic v(X_MEM.X_cell_2_2.q)=0v v(X_MEM.X_cell_2_2.qb)=0.7v
.ic v(X_MEM.X_cell_2_3.q)=0v v(X_MEM.X_cell_2_3.qb)=0.7v
.ic v(X_MEM.X_cell_2_4.q)=0v v(X_MEM.X_cell_2_4.qb)=0.7v
.ic v(X_MEM.X_cell_2_5.q)=0v v(X_MEM.X_cell_2_5.qb)=0.7v
.ic v(X_MEM.X_cell_2_6.q)=0v v(X_MEM.X_cell_2_6.qb)=0.7v
.ic v(X_MEM.X_cell_2_7.q)=0v v(X_MEM.X_cell_2_7.qb)=0.7v
.ic v(X_MEM.X_cell_2_8.q)=0v v(X_MEM.X_cell_2_8.qb)=0.7v
.ic v(X_MEM.X_cell_2_9.q)=0v v(X_MEM.X_cell_2_9.qb)=0.7v
.ic v(X_MEM.X_cell_2_10.q)=0v v(X_MEM.X_cell_2_10.qb)=0.7v
.ic v(X_MEM.X_cell_2_11.q)=0v v(X_MEM.X_cell_2_11.qb)=0.7v
.ic v(X_MEM.X_cell_2_12.q)=0v v(X_MEM.X_cell_2_12.qb)=0.7v
.ic v(X_MEM.X_cell_2_13.q)=0v v(X_MEM.X_cell_2_13.qb)=0.7v
.ic v(X_MEM.X_cell_2_14.q)=0v v(X_MEM.X_cell_2_14.qb)=0.7v
.ic v(X_MEM.X_cell_2_15.q)=0v v(X_MEM.X_cell_2_15.qb)=0.7v
.ic v(X_MEM.X_cell_2_16.q)=0v v(X_MEM.X_cell_2_16.qb)=0.7v
.ic v(X_MEM.X_cell_2_17.q)=0v v(X_MEM.X_cell_2_17.qb)=0.7v
.ic v(X_MEM.X_cell_2_18.q)=0v v(X_MEM.X_cell_2_18.qb)=0.7v
.ic v(X_MEM.X_cell_2_19.q)=0v v(X_MEM.X_cell_2_19.qb)=0.7v
.ic v(X_MEM.X_cell_2_20.q)=0v v(X_MEM.X_cell_2_20.qb)=0.7v
.ic v(X_MEM.X_cell_2_21.q)=0v v(X_MEM.X_cell_2_21.qb)=0.7v
.ic v(X_MEM.X_cell_2_22.q)=0v v(X_MEM.X_cell_2_22.qb)=0.7v
.ic v(X_MEM.X_cell_2_23.q)=0v v(X_MEM.X_cell_2_23.qb)=0.7v
.ic v(X_MEM.X_cell_2_24.q)=0v v(X_MEM.X_cell_2_24.qb)=0.7v
.ic v(X_MEM.X_cell_2_25.q)=0v v(X_MEM.X_cell_2_25.qb)=0.7v
.ic v(X_MEM.X_cell_2_26.q)=0v v(X_MEM.X_cell_2_26.qb)=0.7v
.ic v(X_MEM.X_cell_2_27.q)=0v v(X_MEM.X_cell_2_27.qb)=0.7v
.ic v(X_MEM.X_cell_2_28.q)=0v v(X_MEM.X_cell_2_28.qb)=0.7v
.ic v(X_MEM.X_cell_2_29.q)=0v v(X_MEM.X_cell_2_29.qb)=0.7v
.ic v(X_MEM.X_cell_2_30.q)=0v v(X_MEM.X_cell_2_30.qb)=0.7v
.ic v(X_MEM.X_cell_2_31.q)=0v v(X_MEM.X_cell_2_31.qb)=0.7v
.ic v(X_MEM.X_cell_3_0.q)=0v v(X_MEM.X_cell_3_0.qb)=0.7v
.ic v(X_MEM.X_cell_3_1.q)=0v v(X_MEM.X_cell_3_1.qb)=0.7v
.ic v(X_MEM.X_cell_3_2.q)=0v v(X_MEM.X_cell_3_2.qb)=0.7v
.ic v(X_MEM.X_cell_3_3.q)=0v v(X_MEM.X_cell_3_3.qb)=0.7v
.ic v(X_MEM.X_cell_3_4.q)=0v v(X_MEM.X_cell_3_4.qb)=0.7v
.ic v(X_MEM.X_cell_3_5.q)=0v v(X_MEM.X_cell_3_5.qb)=0.7v
.ic v(X_MEM.X_cell_3_6.q)=0v v(X_MEM.X_cell_3_6.qb)=0.7v
.ic v(X_MEM.X_cell_3_7.q)=0v v(X_MEM.X_cell_3_7.qb)=0.7v
.ic v(X_MEM.X_cell_3_8.q)=0v v(X_MEM.X_cell_3_8.qb)=0.7v
.ic v(X_MEM.X_cell_3_9.q)=0v v(X_MEM.X_cell_3_9.qb)=0.7v
.ic v(X_MEM.X_cell_3_10.q)=0v v(X_MEM.X_cell_3_10.qb)=0.7v
.ic v(X_MEM.X_cell_3_11.q)=0v v(X_MEM.X_cell_3_11.qb)=0.7v
.ic v(X_MEM.X_cell_3_12.q)=0v v(X_MEM.X_cell_3_12.qb)=0.7v
.ic v(X_MEM.X_cell_3_13.q)=0v v(X_MEM.X_cell_3_13.qb)=0.7v
.ic v(X_MEM.X_cell_3_14.q)=0v v(X_MEM.X_cell_3_14.qb)=0.7v
.ic v(X_MEM.X_cell_3_15.q)=0v v(X_MEM.X_cell_3_15.qb)=0.7v
.ic v(X_MEM.X_cell_3_16.q)=0v v(X_MEM.X_cell_3_16.qb)=0.7v
.ic v(X_MEM.X_cell_3_17.q)=0v v(X_MEM.X_cell_3_17.qb)=0.7v
.ic v(X_MEM.X_cell_3_18.q)=0v v(X_MEM.X_cell_3_18.qb)=0.7v
.ic v(X_MEM.X_cell_3_19.q)=0v v(X_MEM.X_cell_3_19.qb)=0.7v
.ic v(X_MEM.X_cell_3_20.q)=0v v(X_MEM.X_cell_3_20.qb)=0.7v
.ic v(X_MEM.X_cell_3_21.q)=0v v(X_MEM.X_cell_3_21.qb)=0.7v
.ic v(X_MEM.X_cell_3_22.q)=0v v(X_MEM.X_cell_3_22.qb)=0.7v
.ic v(X_MEM.X_cell_3_23.q)=0v v(X_MEM.X_cell_3_23.qb)=0.7v
.ic v(X_MEM.X_cell_3_24.q)=0v v(X_MEM.X_cell_3_24.qb)=0.7v
.ic v(X_MEM.X_cell_3_25.q)=0v v(X_MEM.X_cell_3_25.qb)=0.7v
.ic v(X_MEM.X_cell_3_26.q)=0v v(X_MEM.X_cell_3_26.qb)=0.7v
.ic v(X_MEM.X_cell_3_27.q)=0v v(X_MEM.X_cell_3_27.qb)=0.7v
.ic v(X_MEM.X_cell_3_28.q)=0v v(X_MEM.X_cell_3_28.qb)=0.7v
.ic v(X_MEM.X_cell_3_29.q)=0v v(X_MEM.X_cell_3_29.qb)=0.7v
.ic v(X_MEM.X_cell_3_30.q)=0v v(X_MEM.X_cell_3_30.qb)=0.7v
.ic v(X_MEM.X_cell_3_31.q)=0v v(X_MEM.X_cell_3_31.qb)=0.7v
.ic v(X_MEM.X_cell_4_0.q)=0v v(X_MEM.X_cell_4_0.qb)=0.7v
.ic v(X_MEM.X_cell_4_1.q)=0v v(X_MEM.X_cell_4_1.qb)=0.7v
.ic v(X_MEM.X_cell_4_2.q)=0v v(X_MEM.X_cell_4_2.qb)=0.7v
.ic v(X_MEM.X_cell_4_3.q)=0v v(X_MEM.X_cell_4_3.qb)=0.7v
.ic v(X_MEM.X_cell_4_4.q)=0v v(X_MEM.X_cell_4_4.qb)=0.7v
.ic v(X_MEM.X_cell_4_5.q)=0v v(X_MEM.X_cell_4_5.qb)=0.7v
.ic v(X_MEM.X_cell_4_6.q)=0v v(X_MEM.X_cell_4_6.qb)=0.7v
.ic v(X_MEM.X_cell_4_7.q)=0v v(X_MEM.X_cell_4_7.qb)=0.7v
.ic v(X_MEM.X_cell_4_8.q)=0v v(X_MEM.X_cell_4_8.qb)=0.7v
.ic v(X_MEM.X_cell_4_9.q)=0v v(X_MEM.X_cell_4_9.qb)=0.7v
.ic v(X_MEM.X_cell_4_10.q)=0v v(X_MEM.X_cell_4_10.qb)=0.7v
.ic v(X_MEM.X_cell_4_11.q)=0v v(X_MEM.X_cell_4_11.qb)=0.7v
.ic v(X_MEM.X_cell_4_12.q)=0v v(X_MEM.X_cell_4_12.qb)=0.7v
.ic v(X_MEM.X_cell_4_13.q)=0v v(X_MEM.X_cell_4_13.qb)=0.7v
.ic v(X_MEM.X_cell_4_14.q)=0v v(X_MEM.X_cell_4_14.qb)=0.7v
.ic v(X_MEM.X_cell_4_15.q)=0v v(X_MEM.X_cell_4_15.qb)=0.7v
.ic v(X_MEM.X_cell_4_16.q)=0v v(X_MEM.X_cell_4_16.qb)=0.7v
.ic v(X_MEM.X_cell_4_17.q)=0v v(X_MEM.X_cell_4_17.qb)=0.7v
.ic v(X_MEM.X_cell_4_18.q)=0v v(X_MEM.X_cell_4_18.qb)=0.7v
.ic v(X_MEM.X_cell_4_19.q)=0v v(X_MEM.X_cell_4_19.qb)=0.7v
.ic v(X_MEM.X_cell_4_20.q)=0v v(X_MEM.X_cell_4_20.qb)=0.7v
.ic v(X_MEM.X_cell_4_21.q)=0v v(X_MEM.X_cell_4_21.qb)=0.7v
.ic v(X_MEM.X_cell_4_22.q)=0v v(X_MEM.X_cell_4_22.qb)=0.7v
.ic v(X_MEM.X_cell_4_23.q)=0v v(X_MEM.X_cell_4_23.qb)=0.7v
.ic v(X_MEM.X_cell_4_24.q)=0v v(X_MEM.X_cell_4_24.qb)=0.7v
.ic v(X_MEM.X_cell_4_25.q)=0v v(X_MEM.X_cell_4_25.qb)=0.7v
.ic v(X_MEM.X_cell_4_26.q)=0v v(X_MEM.X_cell_4_26.qb)=0.7v
.ic v(X_MEM.X_cell_4_27.q)=0v v(X_MEM.X_cell_4_27.qb)=0.7v
.ic v(X_MEM.X_cell_4_28.q)=0v v(X_MEM.X_cell_4_28.qb)=0.7v
.ic v(X_MEM.X_cell_4_29.q)=0v v(X_MEM.X_cell_4_29.qb)=0.7v
.ic v(X_MEM.X_cell_4_30.q)=0v v(X_MEM.X_cell_4_30.qb)=0.7v
.ic v(X_MEM.X_cell_4_31.q)=0v v(X_MEM.X_cell_4_31.qb)=0.7v
.ic v(X_MEM.X_cell_5_0.q)=0v v(X_MEM.X_cell_5_0.qb)=0.7v
.ic v(X_MEM.X_cell_5_1.q)=0v v(X_MEM.X_cell_5_1.qb)=0.7v
.ic v(X_MEM.X_cell_5_2.q)=0v v(X_MEM.X_cell_5_2.qb)=0.7v
.ic v(X_MEM.X_cell_5_3.q)=0v v(X_MEM.X_cell_5_3.qb)=0.7v
.ic v(X_MEM.X_cell_5_4.q)=0v v(X_MEM.X_cell_5_4.qb)=0.7v
.ic v(X_MEM.X_cell_5_5.q)=0v v(X_MEM.X_cell_5_5.qb)=0.7v
.ic v(X_MEM.X_cell_5_6.q)=0v v(X_MEM.X_cell_5_6.qb)=0.7v
.ic v(X_MEM.X_cell_5_7.q)=0v v(X_MEM.X_cell_5_7.qb)=0.7v
.ic v(X_MEM.X_cell_5_8.q)=0v v(X_MEM.X_cell_5_8.qb)=0.7v
.ic v(X_MEM.X_cell_5_9.q)=0v v(X_MEM.X_cell_5_9.qb)=0.7v
.ic v(X_MEM.X_cell_5_10.q)=0v v(X_MEM.X_cell_5_10.qb)=0.7v
.ic v(X_MEM.X_cell_5_11.q)=0v v(X_MEM.X_cell_5_11.qb)=0.7v
.ic v(X_MEM.X_cell_5_12.q)=0v v(X_MEM.X_cell_5_12.qb)=0.7v
.ic v(X_MEM.X_cell_5_13.q)=0v v(X_MEM.X_cell_5_13.qb)=0.7v
.ic v(X_MEM.X_cell_5_14.q)=0v v(X_MEM.X_cell_5_14.qb)=0.7v
.ic v(X_MEM.X_cell_5_15.q)=0v v(X_MEM.X_cell_5_15.qb)=0.7v
.ic v(X_MEM.X_cell_5_16.q)=0v v(X_MEM.X_cell_5_16.qb)=0.7v
.ic v(X_MEM.X_cell_5_17.q)=0v v(X_MEM.X_cell_5_17.qb)=0.7v
.ic v(X_MEM.X_cell_5_18.q)=0v v(X_MEM.X_cell_5_18.qb)=0.7v
.ic v(X_MEM.X_cell_5_19.q)=0v v(X_MEM.X_cell_5_19.qb)=0.7v
.ic v(X_MEM.X_cell_5_20.q)=0v v(X_MEM.X_cell_5_20.qb)=0.7v
.ic v(X_MEM.X_cell_5_21.q)=0v v(X_MEM.X_cell_5_21.qb)=0.7v
.ic v(X_MEM.X_cell_5_22.q)=0v v(X_MEM.X_cell_5_22.qb)=0.7v
.ic v(X_MEM.X_cell_5_23.q)=0v v(X_MEM.X_cell_5_23.qb)=0.7v
.ic v(X_MEM.X_cell_5_24.q)=0v v(X_MEM.X_cell_5_24.qb)=0.7v
.ic v(X_MEM.X_cell_5_25.q)=0v v(X_MEM.X_cell_5_25.qb)=0.7v
.ic v(X_MEM.X_cell_5_26.q)=0v v(X_MEM.X_cell_5_26.qb)=0.7v
.ic v(X_MEM.X_cell_5_27.q)=0v v(X_MEM.X_cell_5_27.qb)=0.7v
.ic v(X_MEM.X_cell_5_28.q)=0v v(X_MEM.X_cell_5_28.qb)=0.7v
.ic v(X_MEM.X_cell_5_29.q)=0v v(X_MEM.X_cell_5_29.qb)=0.7v
.ic v(X_MEM.X_cell_5_30.q)=0v v(X_MEM.X_cell_5_30.qb)=0.7v
.ic v(X_MEM.X_cell_5_31.q)=0v v(X_MEM.X_cell_5_31.qb)=0.7v
.ic v(X_MEM.X_cell_6_0.q)=0v v(X_MEM.X_cell_6_0.qb)=0.7v
.ic v(X_MEM.X_cell_6_1.q)=0v v(X_MEM.X_cell_6_1.qb)=0.7v
.ic v(X_MEM.X_cell_6_2.q)=0v v(X_MEM.X_cell_6_2.qb)=0.7v
.ic v(X_MEM.X_cell_6_3.q)=0v v(X_MEM.X_cell_6_3.qb)=0.7v
.ic v(X_MEM.X_cell_6_4.q)=0v v(X_MEM.X_cell_6_4.qb)=0.7v
.ic v(X_MEM.X_cell_6_5.q)=0v v(X_MEM.X_cell_6_5.qb)=0.7v
.ic v(X_MEM.X_cell_6_6.q)=0v v(X_MEM.X_cell_6_6.qb)=0.7v
.ic v(X_MEM.X_cell_6_7.q)=0v v(X_MEM.X_cell_6_7.qb)=0.7v
.ic v(X_MEM.X_cell_6_8.q)=0v v(X_MEM.X_cell_6_8.qb)=0.7v
.ic v(X_MEM.X_cell_6_9.q)=0v v(X_MEM.X_cell_6_9.qb)=0.7v
.ic v(X_MEM.X_cell_6_10.q)=0v v(X_MEM.X_cell_6_10.qb)=0.7v
.ic v(X_MEM.X_cell_6_11.q)=0v v(X_MEM.X_cell_6_11.qb)=0.7v
.ic v(X_MEM.X_cell_6_12.q)=0v v(X_MEM.X_cell_6_12.qb)=0.7v
.ic v(X_MEM.X_cell_6_13.q)=0v v(X_MEM.X_cell_6_13.qb)=0.7v
.ic v(X_MEM.X_cell_6_14.q)=0v v(X_MEM.X_cell_6_14.qb)=0.7v
.ic v(X_MEM.X_cell_6_15.q)=0v v(X_MEM.X_cell_6_15.qb)=0.7v
.ic v(X_MEM.X_cell_6_16.q)=0v v(X_MEM.X_cell_6_16.qb)=0.7v
.ic v(X_MEM.X_cell_6_17.q)=0v v(X_MEM.X_cell_6_17.qb)=0.7v
.ic v(X_MEM.X_cell_6_18.q)=0v v(X_MEM.X_cell_6_18.qb)=0.7v
.ic v(X_MEM.X_cell_6_19.q)=0v v(X_MEM.X_cell_6_19.qb)=0.7v
.ic v(X_MEM.X_cell_6_20.q)=0v v(X_MEM.X_cell_6_20.qb)=0.7v
.ic v(X_MEM.X_cell_6_21.q)=0v v(X_MEM.X_cell_6_21.qb)=0.7v
.ic v(X_MEM.X_cell_6_22.q)=0v v(X_MEM.X_cell_6_22.qb)=0.7v
.ic v(X_MEM.X_cell_6_23.q)=0v v(X_MEM.X_cell_6_23.qb)=0.7v
.ic v(X_MEM.X_cell_6_24.q)=0v v(X_MEM.X_cell_6_24.qb)=0.7v
.ic v(X_MEM.X_cell_6_25.q)=0v v(X_MEM.X_cell_6_25.qb)=0.7v
.ic v(X_MEM.X_cell_6_26.q)=0v v(X_MEM.X_cell_6_26.qb)=0.7v
.ic v(X_MEM.X_cell_6_27.q)=0v v(X_MEM.X_cell_6_27.qb)=0.7v
.ic v(X_MEM.X_cell_6_28.q)=0v v(X_MEM.X_cell_6_28.qb)=0.7v
.ic v(X_MEM.X_cell_6_29.q)=0v v(X_MEM.X_cell_6_29.qb)=0.7v
.ic v(X_MEM.X_cell_6_30.q)=0v v(X_MEM.X_cell_6_30.qb)=0.7v
.ic v(X_MEM.X_cell_6_31.q)=0v v(X_MEM.X_cell_6_31.qb)=0.7v
.ic v(X_MEM.X_cell_7_0.q)=0v v(X_MEM.X_cell_7_0.qb)=0.7v
.ic v(X_MEM.X_cell_7_1.q)=0v v(X_MEM.X_cell_7_1.qb)=0.7v
.ic v(X_MEM.X_cell_7_2.q)=0v v(X_MEM.X_cell_7_2.qb)=0.7v
.ic v(X_MEM.X_cell_7_3.q)=0v v(X_MEM.X_cell_7_3.qb)=0.7v
.ic v(X_MEM.X_cell_7_4.q)=0v v(X_MEM.X_cell_7_4.qb)=0.7v
.ic v(X_MEM.X_cell_7_5.q)=0v v(X_MEM.X_cell_7_5.qb)=0.7v
.ic v(X_MEM.X_cell_7_6.q)=0v v(X_MEM.X_cell_7_6.qb)=0.7v
.ic v(X_MEM.X_cell_7_7.q)=0v v(X_MEM.X_cell_7_7.qb)=0.7v
.ic v(X_MEM.X_cell_7_8.q)=0v v(X_MEM.X_cell_7_8.qb)=0.7v
.ic v(X_MEM.X_cell_7_9.q)=0v v(X_MEM.X_cell_7_9.qb)=0.7v
.ic v(X_MEM.X_cell_7_10.q)=0v v(X_MEM.X_cell_7_10.qb)=0.7v
.ic v(X_MEM.X_cell_7_11.q)=0v v(X_MEM.X_cell_7_11.qb)=0.7v
.ic v(X_MEM.X_cell_7_12.q)=0v v(X_MEM.X_cell_7_12.qb)=0.7v
.ic v(X_MEM.X_cell_7_13.q)=0v v(X_MEM.X_cell_7_13.qb)=0.7v
.ic v(X_MEM.X_cell_7_14.q)=0v v(X_MEM.X_cell_7_14.qb)=0.7v
.ic v(X_MEM.X_cell_7_15.q)=0v v(X_MEM.X_cell_7_15.qb)=0.7v
.ic v(X_MEM.X_cell_7_16.q)=0v v(X_MEM.X_cell_7_16.qb)=0.7v
.ic v(X_MEM.X_cell_7_17.q)=0v v(X_MEM.X_cell_7_17.qb)=0.7v
.ic v(X_MEM.X_cell_7_18.q)=0v v(X_MEM.X_cell_7_18.qb)=0.7v